	18
slam.xyz
 F    1.447671    0.834783   -1.069230
 F   -1.445748   -0.833673    1.070093
 F    0.000470    1.673224    1.070614
 F   -0.000494   -1.671468   -1.070610
 F   -3.728722   -0.000177    0.000475
 F    3.730007   -0.001613    0.000024
 F    1.448606   -0.837580    1.070866
 F   -1.447125    0.836696   -1.070856
 F    1.866661    3.229275   -0.000158
 F    1.861326   -3.232172   -0.000799
 F   -1.867517   -3.227282    0.000638
 F   -1.865223    3.229937   -0.001143
Pb    2.274990   -1.315371   -1.150284
Pb   -2.274993    1.314365    1.151136
Pb   -2.275025   -1.312098   -1.152486
Pb    2.275982    1.312642    1.150847
Pb    0.000959    2.627717   -1.150576
Pb   -0.001825   -2.627204    1.151450
