40
#src_path:/home/uccawkj/Scratch/Bi2O3/n8/Aims_B25278/geometry.in.next_step
  O   -1.278469    1.010948    0.775415
  O    1.380452   -3.990177   -3.954690
  O    3.166178   -3.576969   -5.848479
  O    0.482504    2.681066    1.962520
  O   -0.665652    5.017836    1.579703
  O   -2.041053    3.643255   -0.265795
  O    2.061450   -0.761875   -2.959915
  O    2.584589    3.162687    0.112981
  O   -0.687689    0.983467   -3.761746
  O    2.962001   -3.103601   -1.878028
  O    0.439070    2.202767   -1.308827
  O    4.541601   -2.202376   -4.002956
  O   -2.574319    0.469465   -1.844282
  O    4.211930    3.493710   -2.094619
  O    5.074857    0.971419   -2.424468
  O    0.156353   -0.892088   -0.564253
  O    2.018011   -1.240169   -6.231292
  O    2.344172    2.332970   -3.704507
  O   -0.084073   -1.721798   -4.381729
  O    3.188222    0.457403   -0.507004
  O   -0.461470    4.544488   -2.390723
  O   -1.711400   -2.052818   -2.174135
  O    3.778996    0.429937   -5.044169
  O    1.120055    5.431040   -0.314058
 Bi   -1.501876    2.504549   -2.264427
 Bi    1.452787    0.497968   -4.618166
 Bi    1.047748    0.942905    0.349409
 Bi    4.507573    2.135771   -0.519400
 Bi   -2.007062   -0.694889   -3.749359
 Bi    1.008926   -3.077710   -5.850990
 Bi    4.002404   -1.063662   -2.004339
 Bi   -1.630431    2.935371    1.709261
 Bi    4.130935   -1.494496   -5.977998
 Bi   -1.021949    5.565515   -0.573181
 Bi   -1.953257   -0.825382   -0.296345
 Bi    0.698742   -2.422771   -2.293997
 Bi    1.491609    4.518608    1.582259
 Bi    4.453784    2.266260   -3.972401
 Bi    3.522459   -4.124611   -3.695585
 Bi    1.801791    3.863649   -1.974763
