18

Pb         0.00000        2.96550        2.96550
Pb         5.93100        2.96550        2.96550
Pb         2.96550        0.00000        2.96550
Pb         2.96550        5.93100        2.96550
Pb         2.96550        2.96550        0.00000
Pb         2.96550        2.96550        5.93100
F          1.48275        1.48275        1.48275
F          4.44825        4.44825        4.44825
F          4.44825        4.44825        1.48275
F          1.48275        1.48275        4.44825
F          4.44825        1.48275        4.44825
F          1.48275        4.44825        1.48275
F          1.48275        4.44825        4.44825
F          4.44825        1.48275        1.48275
F         -1.48275        1.48275        1.48275
F         -1.48275        1.48275        4.44825
F          7.41375        1.48275        1.48275
F          7.41375        1.48275        4.44825
